data_openmx
_audit_creation_date              2007-10-11
_audit_creation_method            'Materials Studio'
_symmetry_space_group_name_H-M    'P1'
_symmetry_Int_Tables_number       1
_symmetry_cell_setting            triclinic
loop_
_symmetry_equiv_pos_as_xyz
  x,y,z
_cell_length_a                    3.5657
_cell_length_b                    3.5657
_cell_length_c                   14.6478
_cell_angle_alpha                 90.0000
_cell_angle_beta                  90.0000
_cell_angle_gamma                120.0000
loop_
_atom_site_label
_atom_site_type_symbol
_atom_site_fract_x
_atom_site_fract_y
_atom_site_fract_z
_atom_site_Uiso_or_equiv
_atom_site_adp_type
_atom_site_occupancy
A1     Te    0.66667   0.33333   0.12782   0.00000  Uiso   1.00
A2     Te    0.66667   0.33333   0.37218   0.00000  Uiso   1.00
A3     Mo    0.33333   0.66667   0.25000   0.00000  Uiso   1.00
