data_openmx
_audit_creation_date              2007-10-11
_audit_creation_method            'Materials Studio'
_symmetry_space_group_name_H-M    'P1'
_symmetry_Int_Tables_number       1
_symmetry_cell_setting            triclinic
loop_
_symmetry_equiv_pos_as_xyz
  x,y,z
_cell_length_a                    4.1914
_cell_length_b                    4.1914
_cell_length_c                   29.9287
_cell_angle_alpha                 90.0000
_cell_angle_beta                  90.0000
_cell_angle_gamma                120.0000
loop_
_atom_site_label
_atom_site_type_symbol
_atom_site_fract_x
_atom_site_fract_y
_atom_site_fract_z
_atom_site_Uiso_or_equiv
_atom_site_adp_type
_atom_site_occupancy
A1     Bi    0.00000   0.00000   0.60157   0.00000  Uiso   1.00
A2     Bi    0.66667   0.33333   0.73177   0.00000  Uiso   1.00
A3     Se    0.66667   0.33333   0.54905   0.00000  Uiso   1.00
A4     Se    0.33333   0.66667   0.66667   0.00000  Uiso   1.00
A5     Se    0.00000   0.00000   0.78429   0.00000  Uiso   1.00
